*SPEF "ieee 1481-1999"
*DESIGN "user_proj_dummy"
*DATE "11:11:11 Fri 11 11, 1111"
*VENDOR "OpenRCX"
*PROGRAM "Parallel Extraction"
*VERSION "1.0"
*DESIGN_FLOW "NAME_SCOPE LOCAL" "PIN_CAP NONE"
*DIVIDER /
*DELIMITER :
*BUS_DELIMITER []
*T_UNIT 1 NS
*C_UNIT 1 PF
*R_UNIT 1 OHM
*L_UNIT 1 HENRY

*NAME_MAP
*1 io_in[0]
*2 io_in[10]
*3 io_in[11]
*4 io_in[12]
*5 io_in[13]
*6 io_in[14]
*7 io_in[15]
*8 io_in[16]
*9 io_in[17]
*10 io_in[18]
*11 io_in[19]
*12 io_in[1]
*13 io_in[20]
*14 io_in[21]
*15 io_in[22]
*16 io_in[23]
*17 io_in[24]
*18 io_in[25]
*19 io_in[26]
*20 io_in[27]
*21 io_in[28]
*22 io_in[29]
*23 io_in[2]
*24 io_in[30]
*25 io_in[31]
*26 io_in[32]
*27 io_in[33]
*28 io_in[34]
*29 io_in[35]
*30 io_in[36]
*31 io_in[37]
*32 io_in[3]
*33 io_in[4]
*34 io_in[5]
*35 io_in[6]
*36 io_in[7]
*37 io_in[8]
*38 io_in[9]
*39 net175
*40 net185
*41 net186
*42 net187
*43 net188
*44 net189
*45 net190
*46 net191
*47 net192
*48 net193
*49 net194
*50 net176
*51 net195
*52 net196
*53 net197
*54 net198
*55 net199
*56 net200
*57 net201
*58 net202
*59 net203
*60 net204
*61 net177
*62 net205
*63 net206
*64 net207
*65 net208
*66 net209
*67 net210
*68 net211
*69 net212
*70 net178
*71 net179
*72 net180
*73 net181
*74 net182
*75 net183
*76 net184
*77 io_out[0]
*78 net147
*79 net148
*80 net149
*81 net150
*82 net151
*83 net152
*84 net153
*85 net154
*86 net155
*87 net156
*88 io_out[1]
*89 net157
*90 net158
*91 net159
*92 net160
*93 net161
*94 net162
*95 net163
*96 net164
*97 net165
*98 net166
*99 io_out[2]
*100 net167
*101 net168
*102 net169
*103 net170
*104 net171
*105 net172
*106 net173
*107 net174
*108 io_out[3]
*109 io_out[4]
*110 io_out[5]
*111 net143
*112 net144
*113 net145
*114 net146
*115 net140
*116 net141
*117 net142
*118 la_data_in[0]
*119 la_data_in[100]
*120 la_data_in[101]
*121 la_data_in[102]
*122 la_data_in[103]
*123 la_data_in[104]
*124 la_data_in[105]
*125 la_data_in[106]
*126 la_data_in[107]
*127 la_data_in[108]
*128 la_data_in[109]
*129 la_data_in[10]
*130 la_data_in[110]
*131 la_data_in[111]
*132 la_data_in[112]
*133 la_data_in[113]
*134 la_data_in[114]
*135 la_data_in[115]
*136 la_data_in[116]
*137 la_data_in[117]
*138 la_data_in[118]
*139 la_data_in[119]
*140 la_data_in[11]
*141 la_data_in[120]
*142 la_data_in[121]
*143 la_data_in[122]
*144 la_data_in[123]
*145 la_data_in[124]
*146 la_data_in[125]
*147 la_data_in[126]
*148 la_data_in[127]
*149 la_data_in[12]
*150 la_data_in[13]
*151 la_data_in[14]
*152 la_data_in[15]
*153 la_data_in[16]
*154 la_data_in[17]
*155 la_data_in[18]
*156 la_data_in[19]
*157 la_data_in[1]
*158 la_data_in[20]
*159 la_data_in[21]
*160 la_data_in[22]
*161 la_data_in[23]
*162 la_data_in[24]
*163 la_data_in[25]
*164 la_data_in[26]
*165 la_data_in[27]
*166 la_data_in[28]
*167 la_data_in[29]
*168 la_data_in[2]
*169 la_data_in[30]
*170 la_data_in[31]
*171 la_data_in[32]
*172 la_data_in[33]
*173 la_data_in[34]
*174 la_data_in[35]
*175 la_data_in[36]
*176 la_data_in[37]
*177 la_data_in[38]
*178 la_data_in[39]
*179 la_data_in[3]
*180 la_data_in[40]
*181 la_data_in[41]
*182 la_data_in[42]
*183 la_data_in[43]
*184 la_data_in[44]
*185 la_data_in[45]
*186 la_data_in[46]
*187 la_data_in[47]
*188 la_data_in[48]
*189 la_data_in[49]
*190 la_data_in[4]
*191 la_data_in[50]
*192 la_data_in[51]
*193 la_data_in[52]
*194 la_data_in[53]
*195 la_data_in[54]
*196 la_data_in[55]
*197 la_data_in[56]
*198 la_data_in[57]
*199 la_data_in[58]
*200 la_data_in[59]
*201 la_data_in[5]
*202 la_data_in[60]
*203 la_data_in[61]
*204 la_data_in[62]
*205 la_data_in[63]
*206 la_data_in[64]
*207 la_data_in[65]
*208 la_data_in[66]
*209 la_data_in[67]
*210 la_data_in[68]
*211 la_data_in[69]
*212 la_data_in[6]
*213 la_data_in[70]
*214 la_data_in[71]
*215 la_data_in[72]
*216 la_data_in[73]
*217 la_data_in[74]
*218 la_data_in[75]
*219 la_data_in[76]
*220 la_data_in[77]
*221 la_data_in[78]
*222 la_data_in[79]
*223 la_data_in[7]
*224 la_data_in[80]
*225 la_data_in[81]
*226 la_data_in[82]
*227 la_data_in[83]
*228 la_data_in[84]
*229 la_data_in[85]
*230 la_data_in[86]
*231 la_data_in[87]
*232 la_data_in[88]
*233 la_data_in[89]
*234 la_data_in[8]
*235 la_data_in[90]
*236 la_data_in[91]
*237 la_data_in[92]
*238 la_data_in[93]
*239 la_data_in[94]
*240 la_data_in[95]
*241 la_data_in[96]
*242 la_data_in[97]
*243 la_data_in[98]
*244 la_data_in[99]
*245 la_data_in[9]
*246 net12
*247 net112
*248 net113
*249 net114
*250 net115
*251 net116
*252 net117
*253 net118
*254 net119
*255 net120
*256 net121
*257 net22
*258 net122
*259 net123
*260 net124
*261 net125
*262 net126
*263 net127
*264 net128
*265 net129
*266 net130
*267 net131
*268 net23
*269 net132
*270 net133
*271 net134
*272 net135
*273 net136
*274 net137
*275 net138
*276 net139
*277 net24
*278 net25
*279 net26
*280 net27
*281 net28
*282 net29
*283 net30
*284 net31
*285 net13
*286 net32
*287 net33
*288 net34
*289 net35
*290 net36
*291 net37
*292 net38
*293 net39
*294 net40
*295 net41
*296 net14
*297 net42
*298 net43
*299 net44
*300 net45
*301 net46
*302 net47
*303 net48
*304 net49
*305 net50
*306 net51
*307 net15
*308 net52
*309 net53
*310 net54
*311 net55
*312 net56
*313 net57
*314 net58
*315 net59
*316 net60
*317 net61
*318 net16
*319 net62
*320 net63
*321 net64
*322 net65
*323 net66
*324 net67
*325 net68
*326 net69
*327 net70
*328 net71
*329 net17
*330 net72
*331 net73
*332 net74
*333 net75
*334 net76
*335 net77
*336 net78
*337 net79
*338 net80
*339 net81
*340 net18
*341 net82
*342 net83
*343 net84
*344 net85
*345 net86
*346 net87
*347 net88
*348 net89
*349 net90
*350 net91
*351 net19
*352 net92
*353 net93
*354 net94
*355 net95
*356 net96
*357 net97
*358 net98
*359 net99
*360 net100
*361 net101
*362 net20
*363 net102
*364 net103
*365 net104
*366 net105
*367 net106
*368 net107
*369 net108
*370 net109
*371 net110
*372 net111
*373 net21
*374 la_oenb[0]
*375 la_oenb[100]
*376 la_oenb[101]
*377 la_oenb[102]
*378 la_oenb[103]
*379 la_oenb[104]
*380 la_oenb[105]
*381 la_oenb[106]
*382 la_oenb[107]
*383 la_oenb[108]
*384 la_oenb[109]
*385 la_oenb[10]
*386 la_oenb[110]
*387 la_oenb[111]
*388 la_oenb[112]
*389 la_oenb[113]
*390 la_oenb[114]
*391 la_oenb[115]
*392 la_oenb[116]
*393 la_oenb[117]
*394 la_oenb[118]
*395 la_oenb[119]
*396 la_oenb[11]
*397 la_oenb[120]
*398 la_oenb[121]
*399 la_oenb[122]
*400 la_oenb[123]
*401 la_oenb[124]
*402 la_oenb[125]
*403 la_oenb[126]
*404 la_oenb[127]
*405 la_oenb[12]
*406 la_oenb[13]
*407 la_oenb[14]
*408 la_oenb[15]
*409 la_oenb[16]
*410 la_oenb[17]
*411 la_oenb[18]
*412 la_oenb[19]
*413 la_oenb[1]
*414 la_oenb[20]
*415 la_oenb[21]
*416 la_oenb[22]
*417 la_oenb[23]
*418 la_oenb[24]
*419 la_oenb[25]
*420 la_oenb[26]
*421 la_oenb[27]
*422 la_oenb[28]
*423 la_oenb[29]
*424 la_oenb[2]
*425 la_oenb[30]
*426 la_oenb[31]
*427 la_oenb[32]
*428 la_oenb[33]
*429 la_oenb[34]
*430 la_oenb[35]
*431 la_oenb[36]
*432 la_oenb[37]
*433 la_oenb[38]
*434 la_oenb[39]
*435 la_oenb[3]
*436 la_oenb[40]
*437 la_oenb[41]
*438 la_oenb[42]
*439 la_oenb[43]
*440 la_oenb[44]
*441 la_oenb[45]
*442 la_oenb[46]
*443 la_oenb[47]
*444 la_oenb[48]
*445 la_oenb[49]
*446 la_oenb[4]
*447 la_oenb[50]
*448 la_oenb[51]
*449 la_oenb[52]
*450 la_oenb[53]
*451 la_oenb[54]
*452 la_oenb[55]
*453 la_oenb[56]
*454 la_oenb[57]
*455 la_oenb[58]
*456 la_oenb[59]
*457 la_oenb[5]
*458 la_oenb[60]
*459 la_oenb[61]
*460 la_oenb[62]
*461 la_oenb[63]
*462 la_oenb[64]
*463 la_oenb[65]
*464 la_oenb[66]
*465 la_oenb[67]
*466 la_oenb[68]
*467 la_oenb[69]
*468 la_oenb[6]
*469 la_oenb[70]
*470 la_oenb[71]
*471 la_oenb[72]
*472 la_oenb[73]
*473 la_oenb[74]
*474 la_oenb[75]
*475 la_oenb[76]
*476 la_oenb[77]
*477 la_oenb[78]
*478 la_oenb[79]
*479 la_oenb[7]
*480 la_oenb[80]
*481 la_oenb[81]
*482 la_oenb[82]
*483 la_oenb[83]
*484 la_oenb[84]
*485 la_oenb[85]
*486 la_oenb[86]
*487 la_oenb[87]
*488 la_oenb[88]
*489 la_oenb[89]
*490 la_oenb[8]
*491 la_oenb[90]
*492 la_oenb[91]
*493 la_oenb[92]
*494 la_oenb[93]
*495 la_oenb[94]
*496 la_oenb[95]
*497 la_oenb[96]
*498 la_oenb[97]
*499 la_oenb[98]
*500 la_oenb[99]
*501 la_oenb[9]
*502 user_clock2
*505 wb_clk_i
*506 wb_rst_i
*507 net213
*508 wbs_adr_i[0]
*509 wbs_adr_i[10]
*510 wbs_adr_i[11]
*511 wbs_adr_i[12]
*512 wbs_adr_i[13]
*513 wbs_adr_i[14]
*514 wbs_adr_i[15]
*515 wbs_adr_i[16]
*516 wbs_adr_i[17]
*517 wbs_adr_i[18]
*518 wbs_adr_i[19]
*519 wbs_adr_i[1]
*520 wbs_adr_i[20]
*521 wbs_adr_i[21]
*522 wbs_adr_i[22]
*523 wbs_adr_i[23]
*524 wbs_adr_i[24]
*525 wbs_adr_i[25]
*526 wbs_adr_i[26]
*527 wbs_adr_i[27]
*528 wbs_adr_i[28]
*529 wbs_adr_i[29]
*530 wbs_adr_i[2]
*531 wbs_adr_i[30]
*532 wbs_adr_i[31]
*533 wbs_adr_i[3]
*534 wbs_adr_i[4]
*535 wbs_adr_i[5]
*536 wbs_adr_i[6]
*537 wbs_adr_i[7]
*538 wbs_adr_i[8]
*539 wbs_adr_i[9]
*540 wbs_cyc_i
*541 wbs_dat_i[0]
*542 wbs_dat_i[10]
*543 wbs_dat_i[11]
*544 wbs_dat_i[12]
*545 wbs_dat_i[13]
*546 wbs_dat_i[14]
*547 wbs_dat_i[15]
*548 wbs_dat_i[16]
*549 wbs_dat_i[17]
*550 wbs_dat_i[18]
*551 wbs_dat_i[19]
*552 wbs_dat_i[1]
*553 wbs_dat_i[20]
*554 wbs_dat_i[21]
*555 wbs_dat_i[22]
*556 wbs_dat_i[23]
*557 wbs_dat_i[24]
*558 wbs_dat_i[25]
*559 wbs_dat_i[26]
*560 wbs_dat_i[27]
*561 wbs_dat_i[28]
*562 wbs_dat_i[29]
*563 wbs_dat_i[2]
*564 wbs_dat_i[30]
*565 wbs_dat_i[31]
*566 wbs_dat_i[3]
*567 wbs_dat_i[4]
*568 wbs_dat_i[5]
*569 wbs_dat_i[6]
*570 wbs_dat_i[7]
*571 wbs_dat_i[8]
*572 wbs_dat_i[9]
*573 net214
*574 net224
*575 net225
*576 net226
*577 net227
*578 net228
*579 net229
*580 net230
*581 net231
*582 net232
*583 net233
*584 net215
*585 net234
*586 net235
*587 net236
*588 net237
*589 net238
*590 net239
*591 net240
*592 net241
*593 net242
*594 net243
*595 net216
*596 net244
*597 net245
*598 net217
*599 net218
*600 net219
*601 net220
*602 net221
*603 net222
*604 net223
*605 wbs_sel_i[0]
*606 wbs_sel_i[1]
*607 wbs_sel_i[2]
*608 wbs_sel_i[3]
*609 wbs_stb_i
*610 wbs_we_i
*611 net1
*612 net10
*613 net11
*614 net2
*615 net3
*616 net4
*617 net5
*618 net6
*619 net7
*620 net8
*621 net9
*622 ANTENNA__002__A
*623 ANTENNA__238__CLK
*624 ANTENNA__239__CLK
*625 ANTENNA__239__D
*626 ANTENNA_input1_A
*627 ANTENNA_input2_A
*628 ANTENNA_input3_A
*629 ANTENNA_input4_A
*630 ANTENNA_input5_A
*631 FILLER_0_100
*632 FILLER_0_1001
*633 FILLER_0_1007
*634 FILLER_0_1009
*635 FILLER_0_1013
*636 FILLER_0_1021
*637 FILLER_0_1025
*638 FILLER_0_1033
*639 FILLER_0_1040
*640 FILLER_0_1044
*641 FILLER_0_1048
*642 FILLER_0_1056
*643 FILLER_0_1060
*644 FILLER_0_1065
*645 FILLER_0_1072
*646 FILLER_0_1080
*647 FILLER_0_1084
*648 FILLER_0_1096
*649 FILLER_0_1104
*650 FILLER_0_1108
*651 FILLER_0_1124
*652 FILLER_0_1128
*653 FILLER_0_1132
*654 FILLER_0_1140
*655 FILLER_0_1144
*656 FILLER_0_1149
*657 FILLER_0_1156
*658 FILLER_0_116
*659 FILLER_0_1167
*660 FILLER_0_1175
*661 FILLER_0_1180
*662 FILLER_0_1191
*663 FILLER_0_1203
*664 FILLER_0_1208
*665 FILLER_0_1215
*666 FILLER_0_1223
*667 FILLER_0_1227
*668 FILLER_0_123
*669 FILLER_0_1231
*670 FILLER_0_1233
*671 FILLER_0_1239
*672 FILLER_0_1247
*673 FILLER_0_1251
*674 FILLER_0_1259
*675 FILLER_0_1264
*676 FILLER_0_1275
*677 FILLER_0_1287
*678 FILLER_0_1292
*679 FILLER_0_1299
*680 FILLER_0_131
*681 FILLER_0_1310
*682 FILLER_0_1317
*683 FILLER_0_1322
*684 FILLER_0_1330
*685 FILLER_0_1334
*686 FILLER_0_1342
*687 FILLER_0_1348
*688 FILLER_0_135
*689 FILLER_0_1354
*690 FILLER_0_1358
*691 FILLER_0_1370
*692 FILLER_0_1376
*693 FILLER_0_1383
*694 FILLER_0_139
*695 FILLER_0_1394
*696 FILLER_0_1401
*697 FILLER_0_1406
*698 FILLER_0_141
*699 FILLER_0_1414
*700 FILLER_0_1418
*701 FILLER_0_1426
*702 FILLER_0_1432
*703 FILLER_0_1441
*704 FILLER_0_1453
*705 FILLER_0_1460
*706 FILLER_0_1467
*707 FILLER_0_147
*708 FILLER_0_1473
*709 FILLER_0_1477
*710 FILLER_0_1483
*711 FILLER_0_1485
*712 FILLER_0_1489
*713 FILLER_0_1497
*714 FILLER_0_1501
*715 FILLER_0_1509
*716 FILLER_0_1516
*717 FILLER_0_1525
*718 FILLER_0_1537
*719 FILLER_0_1544
*720 FILLER_0_155
*721 FILLER_0_1551
*722 FILLER_0_1560
*723 FILLER_0_1572
*724 FILLER_0_1580
*725 FILLER_0_1584
*726 FILLER_0_159
*727 FILLER_0_1600
*728 FILLER_0_1604
*729 FILLER_0_1608
*730 FILLER_0_1616
*731 FILLER_0_1620
*732 FILLER_0_1625
*733 FILLER_0_1632
*734 FILLER_0_1640
*735 FILLER_0_1644
*736 FILLER_0_1656
*737 FILLER_0_1664
*738 FILLER_0_1668
*739 FILLER_0_167
*740 FILLER_0_1684
*741 FILLER_0_1691
*742 FILLER_0_1699
*743 FILLER_0_1703
*744 FILLER_0_1707
*745 FILLER_0_1709
*746 FILLER_0_1715
*747 FILLER_0_172
*748 FILLER_0_1723
*749 FILLER_0_1727
*750 FILLER_0_1735
*751 FILLER_0_1740
*752 FILLER_0_1751
*753 FILLER_0_1763
*754 FILLER_0_1768
*755 FILLER_0_1775
*756 FILLER_0_1783
*757 FILLER_0_1787
*758 FILLER_0_1791
*759 FILLER_0_1793
*760 FILLER_0_1799
*761 FILLER_0_18
*762 FILLER_0_1807
*763 FILLER_0_1811
*764 FILLER_0_1819
*765 FILLER_0_1824
*766 FILLER_0_183
*767 FILLER_0_1830
*768 FILLER_0_1834
*769 FILLER_0_1846
*770 FILLER_0_1852
*771 FILLER_0_1859
*772 FILLER_0_1870
*773 FILLER_0_1877
*774 FILLER_0_1882
*775 FILLER_0_1890
*776 FILLER_0_1894
*777 FILLER_0_1902
*778 FILLER_0_1908
*779 FILLER_0_1914
*780 FILLER_0_1918
*781 FILLER_0_1925
*782 FILLER_0_195
*783 FILLER_0_200
*784 FILLER_0_207
*785 FILLER_0_215
*786 FILLER_0_219
*787 FILLER_0_223
*788 FILLER_0_225
*789 FILLER_0_231
*790 FILLER_0_239
*791 FILLER_0_24
*792 FILLER_0_243
*793 FILLER_0_251
*794 FILLER_0_256
*795 FILLER_0_262
*796 FILLER_0_266
*797 FILLER_0_278
*798 FILLER_0_284
*799 FILLER_0_29
*800 FILLER_0_291
*801 FILLER_0_302
*802 FILLER_0_309
*803 FILLER_0_314
*804 FILLER_0_322
*805 FILLER_0_326
*806 FILLER_0_334
*807 FILLER_0_340
*808 FILLER_0_346
*809 FILLER_0_350
*810 FILLER_0_362
*811 FILLER_0_368
*812 FILLER_0_375
*813 FILLER_0_381
*814 FILLER_0_385
*815 FILLER_0_391
*816 FILLER_0_393
*817 FILLER_0_397
*818 FILLER_0_40
*819 FILLER_0_405
*820 FILLER_0_409
*821 FILLER_0_416
*822 FILLER_0_421
*823 FILLER_0_425
*824 FILLER_0_429
*825 FILLER_0_437
*826 FILLER_0_441
*827 FILLER_0_447
*828 FILLER_0_449
*829 FILLER_0_453
*830 FILLER_0_461
*831 FILLER_0_465
*832 FILLER_0_473
*833 FILLER_0_480
*834 FILLER_0_489
*835 FILLER_0_501
*836 FILLER_0_508
*837 FILLER_0_515
*838 FILLER_0_52
*839 FILLER_0_524
*840 FILLER_0_536
*841 FILLER_0_544
*842 FILLER_0_548
*843 FILLER_0_564
*844 FILLER_0_568
*845 FILLER_0_572
*846 FILLER_0_580
*847 FILLER_0_584
*848 FILLER_0_589
*849 FILLER_0_596
*850 FILLER_0_6
*851 FILLER_0_60
*852 FILLER_0_604
*853 FILLER_0_608
*854 FILLER_0_620
*855 FILLER_0_628
*856 FILLER_0_632
*857 FILLER_0_648
*858 FILLER_0_655
*859 FILLER_0_663
*860 FILLER_0_667
*861 FILLER_0_671
*862 FILLER_0_673
*863 FILLER_0_679
*864 FILLER_0_68
*865 FILLER_0_687
*866 FILLER_0_691
*867 FILLER_0_699
*868 FILLER_0_704
*869 FILLER_0_715
*870 FILLER_0_72
*871 FILLER_0_727
*872 FILLER_0_732
*873 FILLER_0_739
*874 FILLER_0_747
*875 FILLER_0_751
*876 FILLER_0_755
*877 FILLER_0_757
*878 FILLER_0_763
*879 FILLER_0_771
*880 FILLER_0_775
*881 FILLER_0_783
*882 FILLER_0_788
*883 FILLER_0_794
*884 FILLER_0_798
*885 FILLER_0_810
*886 FILLER_0_816
*887 FILLER_0_823
*888 FILLER_0_834
*889 FILLER_0_841
*890 FILLER_0_846
*891 FILLER_0_854
*892 FILLER_0_858
*893 FILLER_0_866
*894 FILLER_0_872
*895 FILLER_0_878
*896 FILLER_0_88
*897 FILLER_0_882
*898 FILLER_0_894
*899 FILLER_0_900
*900 FILLER_0_907
*901 FILLER_0_913
*902 FILLER_0_917
*903 FILLER_0_923
*904 FILLER_0_925
*905 FILLER_0_929
*906 FILLER_0_937
*907 FILLER_0_941
*908 FILLER_0_949
*909 FILLER_0_956
*910 FILLER_0_96
*911 FILLER_0_965
*912 FILLER_0_977
*913 FILLER_0_984
*914 FILLER_0_991
*915 FILLER_0_997
*916 FILLER_100_1005
*917 FILLER_100_1017
*918 FILLER_100_1029
*919 FILLER_100_1035
*920 FILLER_100_1037
*921 FILLER_100_1049
*922 FILLER_100_1061
*923 FILLER_100_1073
*924 FILLER_100_1085
*925 FILLER_100_109
*926 FILLER_100_1091
*927 FILLER_100_1093
*928 FILLER_100_1105
*929 FILLER_100_1117
*930 FILLER_100_1129
*931 FILLER_100_1141
*932 FILLER_100_1147
*933 FILLER_100_1149
*934 FILLER_100_1161
*935 FILLER_100_1173
*936 FILLER_100_1185
*937 FILLER_100_1197
*938 FILLER_100_1203
*939 FILLER_100_1205
*940 FILLER_100_121
*941 FILLER_100_1217
*942 FILLER_100_1229
*943 FILLER_100_1241
*944 FILLER_100_1253
*945 FILLER_100_1259
*946 FILLER_100_1261
*947 FILLER_100_1273
*948 FILLER_100_1285
*949 FILLER_100_1297
*950 FILLER_100_1309
*951 FILLER_100_1315
*952 FILLER_100_1317
*953 FILLER_100_1329
*954 FILLER_100_133
*955 FILLER_100_1341
*956 FILLER_100_1353
*957 FILLER_100_1365
*958 FILLER_100_1371
*959 FILLER_100_1373
*960 FILLER_100_1385
*961 FILLER_100_139
*962 FILLER_100_1397
*963 FILLER_100_1409
*964 FILLER_100_141
*965 FILLER_100_1421
*966 FILLER_100_1427
*967 FILLER_100_1429
*968 FILLER_100_1441
*969 FILLER_100_1453
*970 FILLER_100_1465
*971 FILLER_100_1477
*972 FILLER_100_1483
*973 FILLER_100_1485
*974 FILLER_100_1497
*975 FILLER_100_15
*976 FILLER_100_1509
*977 FILLER_100_1521
*978 FILLER_100_153
*979 FILLER_100_1533
*980 FILLER_100_1539
*981 FILLER_100_1541
*982 FILLER_100_1553
*983 FILLER_100_1565
*984 FILLER_100_1577
*985 FILLER_100_1589
*986 FILLER_100_1595
*987 FILLER_100_1597
*988 FILLER_100_1609
*989 FILLER_100_1621
*990 FILLER_100_1633
*991 FILLER_100_1645
*992 FILLER_100_165
*993 FILLER_100_1651
*994 FILLER_100_1653
*995 FILLER_100_1665
*996 FILLER_100_1677
*997 FILLER_100_1689
*998 FILLER_100_1701
*999 FILLER_100_1707
*1000 FILLER_100_1709
*1001 FILLER_100_1721
*1002 FILLER_100_1733
*1003 FILLER_100_1745
*1004 FILLER_100_1757
*1005 FILLER_100_1763
*1006 FILLER_100_1765
*1007 FILLER_100_177
*1008 FILLER_100_1777
*1009 FILLER_100_1789
*1010 FILLER_100_1801
*1011 FILLER_100_1813
*1012 FILLER_100_1819
*1013 FILLER_100_1821
*1014 FILLER_100_1833
*1015 FILLER_100_1845
*1016 FILLER_100_1857
*1017 FILLER_100_1869
*1018 FILLER_100_1875
*1019 FILLER_100_1877
*1020 FILLER_100_1889
*1021 FILLER_100_189
*1022 FILLER_100_1901
*1023 FILLER_100_1913
*1024 FILLER_100_1925
*1025 FILLER_100_195
*1026 FILLER_100_197
*1027 FILLER_100_209
*1028 FILLER_100_221
*1029 FILLER_100_233
*1030 FILLER_100_245
*1031 FILLER_100_251
*1032 FILLER_100_253
*1033 FILLER_100_265
*1034 FILLER_100_27
*1035 FILLER_100_277
*1036 FILLER_100_289
*1037 FILLER_100_29
*1038 FILLER_100_3
*1039 FILLER_100_301
*1040 FILLER_100_307
*1041 FILLER_100_309
*1042 FILLER_100_321
*1043 FILLER_100_333
*1044 FILLER_100_345
*1045 FILLER_100_357
*1046 FILLER_100_363
*1047 FILLER_100_365
*1048 FILLER_100_377
*1049 FILLER_100_389
*1050 FILLER_100_401
*1051 FILLER_100_41
*1052 FILLER_100_413
*1053 FILLER_100_419
*1054 FILLER_100_421
*1055 FILLER_100_433
*1056 FILLER_100_445
*1057 FILLER_100_457
*1058 FILLER_100_469
*1059 FILLER_100_475
*1060 FILLER_100_477
*1061 FILLER_100_489
*1062 FILLER_100_501
*1063 FILLER_100_513
*1064 FILLER_100_525
*1065 FILLER_100_53
*1066 FILLER_100_531
*1067 FILLER_100_533
*1068 FILLER_100_545
*1069 FILLER_100_557
*1070 FILLER_100_569
*1071 FILLER_100_581
*1072 FILLER_100_587
*1073 FILLER_100_589
*1074 FILLER_100_601
*1075 FILLER_100_613
*1076 FILLER_100_625
*1077 FILLER_100_637
*1078 FILLER_100_643
*1079 FILLER_100_645
*1080 FILLER_100_65
*1081 FILLER_100_657
*1082 FILLER_100_669
*1083 FILLER_100_681
*1084 FILLER_100_693
*1085 FILLER_100_699
*1086 FILLER_100_701
*1087 FILLER_100_713
*1088 FILLER_100_725
*1089 FILLER_100_737
*1090 FILLER_100_749
*1091 FILLER_100_755
*1092 FILLER_100_757
*1093 FILLER_100_769
*1094 FILLER_100_77
*1095 FILLER_100_781
*1096 FILLER_100_793
*1097 FILLER_100_805
*1098 FILLER_100_811
*1099 FILLER_100_813
*1100 FILLER_100_825
*1101 FILLER_100_83
*1102 FILLER_100_837
*1103 FILLER_100_849
*1104 FILLER_100_85
*1105 FILLER_100_861
*1106 FILLER_100_867
*1107 FILLER_100_869
*1108 FILLER_100_881
*1109 FILLER_100_893
*1110 FILLER_100_905
*1111 FILLER_100_917
*1112 FILLER_100_923
*1113 FILLER_100_925
*1114 FILLER_100_937
*1115 FILLER_100_949
*1116 FILLER_100_961
*1117 FILLER_100_97
*1118 FILLER_100_973
*1119 FILLER_100_979
*1120 FILLER_100_981
*1121 FILLER_100_993
*1122 FILLER_101_1001
*1123 FILLER_101_1007
*1124 FILLER_101_1009
*1125 FILLER_101_1021
*1126 FILLER_101_1033
*1127 FILLER_101_1045
*1128 FILLER_101_105
*1129 FILLER_101_1057
*1130 FILLER_101_1063
*1131 FILLER_101_1065
*1132 FILLER_101_1077
*1133 FILLER_101_1089
*1134 FILLER_101_1101
*1135 FILLER_101_111
*1136 FILLER_101_1113
*1137 FILLER_101_1119
*1138 FILLER_101_1121
*1139 FILLER_101_113
*1140 FILLER_101_1133
*1141 FILLER_101_1145
*1142 FILLER_101_1157
*1143 FILLER_101_1169
*1144 FILLER_101_1175
*1145 FILLER_101_1177
*1146 FILLER_101_1189
*1147 FILLER_101_1201
*1148 FILLER_101_1213
*1149 FILLER_101_1225
*1150 FILLER_101_1231
*1151 FILLER_101_1233
*1152 FILLER_101_1245
*1153 FILLER_101_125
*1154 FILLER_101_1257
*1155 FILLER_101_1269
*1156 FILLER_101_1281
*1157 FILLER_101_1287
*1158 FILLER_101_1289
*1159 FILLER_101_1301
*1160 FILLER_101_1313
*1161 FILLER_101_1325
*1162 FILLER_101_1337
*1163 FILLER_101_1343
*1164 FILLER_101_1345
*1165 FILLER_101_1357
*1166 FILLER_101_1369
*1167 FILLER_101_137
*1168 FILLER_101_1381
*1169 FILLER_101_1393
*1170 FILLER_101_1399
*1171 FILLER_101_1401
*1172 FILLER_101_1413
*1173 FILLER_101_1425
*1174 FILLER_101_1437
*1175 FILLER_101_1449
*1176 FILLER_101_1455
*1177 FILLER_101_1457
*1178 FILLER_101_1469
*1179 FILLER_101_1481
*1180 FILLER_101_149
*1181 FILLER_101_1493
*1182 FILLER_101_15
*1183 FILLER_101_1505
*1184 FILLER_101_1511
*1185 FILLER_101_1513
*1186 FILLER_101_1525
*1187 FILLER_101_1537
*1188 FILLER_101_1549
*1189 FILLER_101_1561
*1190 FILLER_101_1567
*1191 FILLER_101_1569
*1192 FILLER_101_1581
*1193 FILLER_101_1593
*1194 FILLER_101_1605
*1195 FILLER_101_161
*1196 FILLER_101_1617
*1197 FILLER_101_1623
*1198 FILLER_101_1625
*1199 FILLER_101_1637
*1200 FILLER_101_1649
*1201 FILLER_101_1661
*1202 FILLER_101_167
*1203 FILLER_101_1673
*1204 FILLER_101_1679
*1205 FILLER_101_1681
*1206 FILLER_101_169
*1207 FILLER_101_1693
*1208 FILLER_101_1705
*1209 FILLER_101_1717
*1210 FILLER_101_1729
*1211 FILLER_101_1735
*1212 FILLER_101_1737
*1213 FILLER_101_1749
*1214 FILLER_101_1761
*1215 FILLER_101_1773
*1216 FILLER_101_1785
*1217 FILLER_101_1791
*1218 FILLER_101_1793
*1219 FILLER_101_1805
*1220 FILLER_101_181
*1221 FILLER_101_1817
*1222 FILLER_101_1829
*1223 FILLER_101_1841
*1224 FILLER_101_1847
*1225 FILLER_101_1849
*1226 FILLER_101_1861
*1227 FILLER_101_1873
*1228 FILLER_101_1885
*1229 FILLER_101_1897
*1230 FILLER_101_1903
*1231 FILLER_101_1905
*1232 FILLER_101_1917
*1233 FILLER_101_193
*1234 FILLER_101_205
*1235 FILLER_101_217
*1236 FILLER_101_223
*1237 FILLER_101_225
*1238 FILLER_101_237
*1239 FILLER_101_249
*1240 FILLER_101_261
*1241 FILLER_101_27
*1242 FILLER_101_273
*1243 FILLER_101_279
*1244 FILLER_101_281
*1245 FILLER_101_293
*1246 FILLER_101_3
*1247 FILLER_101_305
*1248 FILLER_101_317
*1249 FILLER_101_329
*1250 FILLER_101_335
*1251 FILLER_101_337
*1252 FILLER_101_349
*1253 FILLER_101_361
*1254 FILLER_101_373
*1255 FILLER_101_385
*1256 FILLER_101_39
*1257 FILLER_101_391
*1258 FILLER_101_393
*1259 FILLER_101_405
*1260 FILLER_101_417
*1261 FILLER_101_429
*1262 FILLER_101_441
*1263 FILLER_101_447
*1264 FILLER_101_449
*1265 FILLER_101_461
*1266 FILLER_101_473
*1267 FILLER_101_485
*1268 FILLER_101_497
*1269 FILLER_101_503
*1270 FILLER_101_505
*1271 FILLER_101_51
*1272 FILLER_101_517
*1273 FILLER_101_529
*1274 FILLER_101_541
*1275 FILLER_101_55
*1276 FILLER_101_553
*1277 FILLER_101_559
*1278 FILLER_101_561
*1279 FILLER_101_57
*1280 FILLER_101_573
*1281 FILLER_101_585
*1282 FILLER_101_597
*1283 FILLER_101_609
*1284 FILLER_101_615
*1285 FILLER_101_617
*1286 FILLER_101_629
*1287 FILLER_101_641
*1288 FILLER_101_653
*1289 FILLER_101_665
*1290 FILLER_101_671
*1291 FILLER_101_673
*1292 FILLER_101_685
*1293 FILLER_101_69
*1294 FILLER_101_697
*1295 FILLER_101_709
*1296 FILLER_101_721
*1297 FILLER_101_727
*1298 FILLER_101_729
*1299 FILLER_101_741
*1300 FILLER_101_753
*1301 FILLER_101_765
*1302 FILLER_101_777
*1303 FILLER_101_783
*1304 FILLER_101_785
*1305 FILLER_101_797
*1306 FILLER_101_809
*1307 FILLER_101_81
*1308 FILLER_101_821
*1309 FILLER_101_833
*1310 FILLER_101_839
*1311 FILLER_101_841
*1312 FILLER_101_853
*1313 FILLER_101_865
*1314 FILLER_101_877
*1315 FILLER_101_889
*1316 FILLER_101_895
*1317 FILLER_101_897
*1318 FILLER_101_909
*1319 FILLER_101_921
*1320 FILLER_101_93
*1321 FILLER_101_933
*1322 FILLER_101_945
*1323 FILLER_101_951
*1324 FILLER_101_953
*1325 FILLER_101_965
*1326 FILLER_101_977
*1327 FILLER_101_989
*1328 FILLER_102_1005
*1329 FILLER_102_1017
*1330 FILLER_102_1029
*1331 FILLER_102_1035
*1332 FILLER_102_1037
*1333 FILLER_102_1049
*1334 FILLER_102_1061
*1335 FILLER_102_1073
*1336 FILLER_102_1085
*1337 FILLER_102_109
*1338 FILLER_102_1091
*1339 FILLER_102_1093
*1340 FILLER_102_1105
*1341 FILLER_102_1117
*1342 FILLER_102_1129
*1343 FILLER_102_1141
*1344 FILLER_102_1147
*1345 FILLER_102_1149
*1346 FILLER_102_1161
*1347 FILLER_102_1173
*1348 FILLER_102_1185
*1349 FILLER_102_1197
*1350 FILLER_102_1203
*1351 FILLER_102_1205
*1352 FILLER_102_121
*1353 FILLER_102_1217
*1354 FILLER_102_1229
*1355 FILLER_102_1241
*1356 FILLER_102_1253
*1357 FILLER_102_1259
*1358 FILLER_102_1261
*1359 FILLER_102_1273
*1360 FILLER_102_1285
*1361 FILLER_102_1297
*1362 FILLER_102_1309
*1363 FILLER_102_1315
*1364 FILLER_102_1317
*1365 FILLER_102_1329
*1366 FILLER_102_133
*1367 FILLER_102_1341
*1368 FILLER_102_1353
*1369 FILLER_102_1365
*1370 FILLER_102_1371
*1371 FILLER_102_1373
*1372 FILLER_102_1385
*1373 FILLER_102_139
*1374 FILLER_102_1397
*1375 FILLER_102_1409
*1376 FILLER_102_141
*1377 FILLER_102_1421
*1378 FILLER_102_1427
*1379 FILLER_102_1429
*1380 FILLER_102_1441
*1381 FILLER_102_1453
*1382 FILLER_102_1465
*1383 FILLER_102_1477
*1384 FILLER_102_1483
*1385 FILLER_102_1485
*1386 FILLER_102_1497
*1387 FILLER_102_15
*1388 FILLER_102_1509
*1389 FILLER_102_1521
*1390 FILLER_102_153
*1391 FILLER_102_1533
*1392 FILLER_102_1539
*1393 FILLER_102_1541
*1394 FILLER_102_1553
*1395 FILLER_102_1565
*1396 FILLER_102_1577
*1397 FILLER_102_1589
*1398 FILLER_102_1595
*1399 FILLER_102_1597
*1400 FILLER_102_1609
*1401 FILLER_102_1621
*1402 FILLER_102_1633
*1403 FILLER_102_1645
*1404 FILLER_102_165
*1405 FILLER_102_1651
*1406 FILLER_102_1653
*1407 FILLER_102_1665
*1408 FILLER_102_1677
*1409 FILLER_102_1689
*1410 FILLER_102_1701
*1411 FILLER_102_1707
*1412 FILLER_102_1709
*1413 FILLER_102_1721
*1414 FILLER_102_1733
*1415 FILLER_102_1745
*1416 FILLER_102_1757
*1417 FILLER_102_1763
*1418 FILLER_102_1765
*1419 FILLER_102_177
*1420 FILLER_102_1777
*1421 FILLER_102_1789
*1422 FILLER_102_1801
*1423 FILLER_102_1813
*1424 FILLER_102_1819
*1425 FILLER_102_1821
*1426 FILLER_102_1833
*1427 FILLER_102_1845
*1428 FILLER_102_1857
*1429 FILLER_102_1869
*1430 FILLER_102_1875
*1431 FILLER_102_1877
*1432 FILLER_102_1889
*1433 FILLER_102_189
*1434 FILLER_102_1901
*1435 FILLER_102_1913
*1436 FILLER_102_1925
*1437 FILLER_102_195
*1438 FILLER_102_197
*1439 FILLER_102_209
*1440 FILLER_102_221
*1441 FILLER_102_233
*1442 FILLER_102_245
*1443 FILLER_102_251
*1444 FILLER_102_253
*1445 FILLER_102_265
*1446 FILLER_102_27
*1447 FILLER_102_277
*1448 FILLER_102_289
*1449 FILLER_102_29
*1450 FILLER_102_3
*1451 FILLER_102_301
*1452 FILLER_102_307
*1453 FILLER_102_309
*1454 FILLER_102_321
*1455 FILLER_102_333
*1456 FILLER_102_345
*1457 FILLER_102_357
*1458 FILLER_102_363
*1459 FILLER_102_365
*1460 FILLER_102_377
*1461 FILLER_102_389
*1462 FILLER_102_401
*1463 FILLER_102_41
*1464 FILLER_102_413
*1465 FILLER_102_419
*1466 FILLER_102_421
*1467 FILLER_102_433
*1468 FILLER_102_445
*1469 FILLER_102_457
*1470 FILLER_102_469
*1471 FILLER_102_475
*1472 FILLER_102_477
*1473 FILLER_102_489
*1474 FILLER_102_501
*1475 FILLER_102_513
*1476 FILLER_102_525
*1477 FILLER_102_53
*1478 FILLER_102_531
*1479 FILLER_102_533
*1480 FILLER_102_545
*1481 FILLER_102_557
*1482 FILLER_102_569
*1483 FILLER_102_581
*1484 FILLER_102_587
*1485 FILLER_102_589
*1486 FILLER_102_601
*1487 FILLER_102_613
*1488 FILLER_102_625
*1489 FILLER_102_637
*1490 FILLER_102_643
*1491 FILLER_102_645
*1492 FILLER_102_65
*1493 FILLER_102_657
*1494 FILLER_102_669
*1495 FILLER_102_681
*1496 FILLER_102_693
*1497 FILLER_102_699
*1498 FILLER_102_701
*1499 FILLER_102_713
*1500 FILLER_102_725
*1501 FILLER_102_737
*1502 FILLER_102_749
*1503 FILLER_102_755
*1504 FILLER_102_757
*1505 FILLER_102_769
*1506 FILLER_102_77
*1507 FILLER_102_781
*1508 FILLER_102_793
*1509 FILLER_102_805
*1510 FILLER_102_811
*1511 FILLER_102_813
*1512 FILLER_102_825
*1513 FILLER_102_83
*1514 FILLER_102_837
*1515 FILLER_102_849
*1516 FILLER_102_85
*1517 FILLER_102_861
*1518 FILLER_102_867
*1519 FILLER_102_869
*1520 FILLER_102_881
*1521 FILLER_102_893
*1522 FILLER_102_905
*1523 FILLER_102_917
*1524 FILLER_102_923
*1525 FILLER_102_925
*1526 FILLER_102_937
*1527 FILLER_102_949
*1528 FILLER_102_961
*1529 FILLER_102_97
*1530 FILLER_102_973
*1531 FILLER_102_979
*1532 FILLER_102_981
*1533 FILLER_102_993
*1534 FILLER_103_1001
*1535 FILLER_103_1007
*1536 FILLER_103_1009
*1537 FILLER_103_1021
*1538 FILLER_103_1033
*1539 FILLER_103_1045
*1540 FILLER_103_105
*1541 FILLER_103_1057
*1542 FILLER_103_1063
*1543 FILLER_103_1065
*1544 FILLER_103_1077
*1545 FILLER_103_1089
*1546 FILLER_103_1101
*1547 FILLER_103_111
*1548 FILLER_103_1113
*1549 FILLER_103_1119
*1550 FILLER_103_1121
*1551 FILLER_103_113
*1552 FILLER_103_1133
*1553 FILLER_103_1145
*1554 FILLER_103_1157
*1555 FILLER_103_1169
*1556 FILLER_103_1175
*1557 FILLER_103_1177
*1558 FILLER_103_1189
*1559 FILLER_103_1201
*1560 FILLER_103_1213
*1561 FILLER_103_1225
*1562 FILLER_103_1231
*1563 FILLER_103_1233
*1564 FILLER_103_1245
*1565 FILLER_103_125
*1566 FILLER_103_1257
*1567 FILLER_103_1269
*1568 FILLER_103_1281
*1569 FILLER_103_1287
*1570 FILLER_103_1289
*1571 FILLER_103_1301
*1572 FILLER_103_1313
*1573 FILLER_103_1325
*1574 FILLER_103_1337
*1575 FILLER_103_1343
*1576 FILLER_103_1345
*1577 FILLER_103_1357
*1578 FILLER_103_1369
*1579 FILLER_103_137
*1580 FILLER_103_1381
*1581 FILLER_103_1393
*1582 FILLER_103_1399
*1583 FILLER_103_1401
*1584 FILLER_103_1413
*1585 FILLER_103_1425
*1586 FILLER_103_1437
*1587 FILLER_103_1449
*1588 FILLER_103_1455
*1589 FILLER_103_1457
*1590 FILLER_103_1469
*1591 FILLER_103_1481
*1592 FILLER_103_149
*1593 FILLER_103_1493
*1594 FILLER_103_15
*1595 FILLER_103_1505
*1596 FILLER_103_1511
*1597 FILLER_103_1513
*1598 FILLER_103_1525
*1599 FILLER_103_1537
*1600 FILLER_103_1549
*1601 FILLER_103_1561
*1602 FILLER_103_1567
*1603 FILLER_103_1569
*1604 FILLER_103_1581
*1605 FILLER_103_1593