*SPEF "ieee 1481-1999"
*DESIGN "counter"
*DATE "11:11:11 Fri 11 11, 1111"
*VENDOR "OpenRCX"
*PROGRAM "Parallel Extraction"
*VERSION "1.0"
*DESIGN_FLOW "NAME_SCOPE LOCAL" "PIN_CAP NONE"
*DIVIDER /
*DELIMITER :
*BUS_DELIMITER []
*T_UNIT 1 NS
*C_UNIT 1 PF
*R_UNIT 1 OHM
*L_UNIT 1 HENRY

*NAME_MAP
*1 clk
*2 count[0]
*3 count[1]
*4 count[2]
*5 count[3]
*6 data[0]
*7 data[1]
*8 data[2]
*9 data[3]
*10 dn
*11 en
*12 load
*13 rst_n
*16 _00_
*17 _01_
*18 _02_
*19 _03_
*20 _04_
*21 _05_
*22 _06_
*23 _07_
*24 _08_
*25 _09_
*26 _10_
*27 _11_
*28 _12_
*29 _13_
*30 _14_
*31 _15_
*32 _16_
*33 _17_
*34 _18_
*35 _19_
*36 _20_
*37 _21_
*38 _22_
*39 clknet_0_clk
*40 clknet_1_0_0_clk
*41 clknet_1_1_0_clk
*42 net1
*43 net10
*44 net11
*45 net12
*46 net2
*47 net3
*48 net4
*49 net5
*50 net6
*51 net7
*52 net8
*53 net9
*54 ANTENNA_0
*55 ANTENNA_1
*56 ANTENNA_2
*57 FILLER_0_1005
*58 FILLER_0_1009
*59 FILLER_0_1021
*60 FILLER_0_1033
*61 FILLER_0_1037
*62 FILLER_0_1049
*63 FILLER_0_1061
*64 FILLER_0_1065
*65 FILLER_0_1077
*66 FILLER_0_1089
*67 FILLER_0_109
*68 FILLER_0_1093
*69 FILLER_0_1105
*70 FILLER_0_1117
*71 FILLER_0_1121
*72 FILLER_0_113
*73 FILLER_0_1133
*74 FILLER_0_1145
*75 FILLER_0_1149
*76 FILLER_0_1161
*77 FILLER_0_1171
*78 FILLER_0_1175
*79 FILLER_0_1177
*80 FILLER_0_1189
*81 FILLER_0_1201
*82 FILLER_0_1205
*83 FILLER_0_1217
*84 FILLER_0_1229
*85 FILLER_0_1233
*86 FILLER_0_1245
*87 FILLER_0_125
*88 FILLER_0_1257
*89 FILLER_0_1261
*90 FILLER_0_1273
*91 FILLER_0_137
*92 FILLER_0_141
*93 FILLER_0_153
*94 FILLER_0_165
*95 FILLER_0_169
*96 FILLER_0_181
*97 FILLER_0_193
*98 FILLER_0_197
*99 FILLER_0_209
*100 FILLER_0_21
*101 FILLER_0_221
*102 FILLER_0_225
*103 FILLER_0_237
*104 FILLER_0_249
*105 FILLER_0_253
*106 FILLER_0_265
*107 FILLER_0_27
*108 FILLER_0_277
*109 FILLER_0_281
*110 FILLER_0_29
*111 FILLER_0_293
*112 FILLER_0_305
*113 FILLER_0_309
*114 FILLER_0_321
*115 FILLER_0_333
*116 FILLER_0_337
*117 FILLER_0_349
*118 FILLER_0_361
*119 FILLER_0_365
*120 FILLER_0_377
*121 FILLER_0_388
*122 FILLER_0_393
*123 FILLER_0_405
*124 FILLER_0_41
*125 FILLER_0_417
*126 FILLER_0_421
*127 FILLER_0_433
*128 FILLER_0_445
*129 FILLER_0_449
*130 FILLER_0_461
*131 FILLER_0_473
*132 FILLER_0_477
*133 FILLER_0_489
*134 FILLER_0_501
*135 FILLER_0_505
*136 FILLER_0_517
*137 FILLER_0_529
*138 FILLER_0_53
*139 FILLER_0_533
*140 FILLER_0_545
*141 FILLER_0_557
*142 FILLER_0_561
*143 FILLER_0_57
*144 FILLER_0_573
*145 FILLER_0_585
*146 FILLER_0_589
*147 FILLER_0_601
*148 FILLER_0_613
*149 FILLER_0_617
*150 FILLER_0_629
*151 FILLER_0_641
*152 FILLER_0_645
*153 FILLER_0_657
*154 FILLER_0_669
*155 FILLER_0_673
*156 FILLER_0_685
*157 FILLER_0_69
*158 FILLER_0_697
*159 FILLER_0_701
*160 FILLER_0_713
*161 FILLER_0_725
*162 FILLER_0_729
*163 FILLER_0_741
*164 FILLER_0_753
*165 FILLER_0_757
*166 FILLER_0_769
*167 FILLER_0_777
*168 FILLER_0_783
*169 FILLER_0_785
*170 FILLER_0_797
*171 FILLER_0_809
*172 FILLER_0_81
*173 FILLER_0_813
*174 FILLER_0_825
*175 FILLER_0_837
*176 FILLER_0_841
*177 FILLER_0_85
*178 FILLER_0_853
*179 FILLER_0_865
*180 FILLER_0_869
*181 FILLER_0_881
*182 FILLER_0_893
*183 FILLER_0_897
*184 FILLER_0_9
*185 FILLER_0_909
*186 FILLER_0_921
*187 FILLER_0_925
*188 FILLER_0_937
*189 FILLER_0_949
*190 FILLER_0_953
*191 FILLER_0_965
*192 FILLER_0_97
*193 FILLER_0_977
*194 FILLER_0_981
*195 FILLER_0_993
*196 FILLER_100_1005
*197 FILLER_100_1017
*198 FILLER_100_1029
*199 FILLER_100_1035
*200 FILLER_100_1037
*201 FILLER_100_1049
*202 FILLER_100_1061
*203 FILLER_100_1073
*204 FILLER_100_1085
*205 FILLER_100_109
*206 FILLER_100_1091
*207 FILLER_100_1093
*208 FILLER_100_1105
*209 FILLER_100_1117
*210 FILLER_100_1129
*211 FILLER_100_1141
*212 FILLER_100_1147
*213 FILLER_100_1149
*214 FILLER_100_1161
*215 FILLER_100_1173
*216 FILLER_100_1185
*217 FILLER_100_1197
*218 FILLER_100_1203
*219 FILLER_100_1205
*220 FILLER_100_121
*221 FILLER_100_1217
*222 FILLER_100_1229
*223 FILLER_100_1241
*224 FILLER_100_1253
*225 FILLER_100_1259
*226 FILLER_100_1261
*227 FILLER_100_1273
*228 FILLER_100_133
*229 FILLER_100_139
*230 FILLER_100_141
*231 FILLER_100_15
*232 FILLER_100_153
*233 FILLER_100_165
*234 FILLER_100_177
*235 FILLER_100_189
*236 FILLER_100_195
*237 FILLER_100_197
*238 FILLER_100_209
*239 FILLER_100_221
*240 FILLER_100_233
*241 FILLER_100_245
*242 FILLER_100_251
*243 FILLER_100_253
*244 FILLER_100_265
*245 FILLER_100_27
*246 FILLER_100_277
*247 FILLER_100_289
*248 FILLER_100_29
*249 FILLER_100_3
*250 FILLER_100_301
*251 FILLER_100_307
*252 FILLER_100_309
*253 FILLER_100_321
*254 FILLER_100_333
*255 FILLER_100_345
*256 FILLER_100_357
*257 FILLER_100_363
*258 FILLER_100_365
*259 FILLER_100_377
*260 FILLER_100_389
*261 FILLER_100_401
*262 FILLER_100_41
*263 FILLER_100_413
*264 FILLER_100_419
*265 FILLER_100_421
*266 FILLER_100_433
*267 FILLER_100_445
*268 FILLER_100_457
*269 FILLER_100_469
*270 FILLER_100_475
*271 FILLER_100_477
*272 FILLER_100_489
*273 FILLER_100_501
*274 FILLER_100_513
*275 FILLER_100_525
*276 FILLER_100_53
*277 FILLER_100_531
*278 FILLER_100_533
*279 FILLER_100_545
*280 FILLER_100_557
*281 FILLER_100_569
*282 FILLER_100_581
*283 FILLER_100_587
*284 FILLER_100_589
*285 FILLER_100_601
*286 FILLER_100_613
*287 FILLER_100_625
*288 FILLER_100_637
*289 FILLER_100_643
*290 FILLER_100_645
*291 FILLER_100_65
*292 FILLER_100_657
*293 FILLER_100_669
*294 FILLER_100_681
*295 FILLER_100_693
*296 FILLER_100_699
*297 FILLER_100_701
*298 FILLER_100_713
*299 FILLER_100_725
*300 FILLER_100_737
*301 FILLER_100_749
*302 FILLER_100_755
*303 FILLER_100_757
*304 FILLER_100_769
*305 FILLER_100_77
*306 FILLER_100_781
*307 FILLER_100_793
*308 FILLER_100_805
*309 FILLER_100_811
*310 FILLER_100_813
*311 FILLER_100_825
*312 FILLER_100_83
*313 FILLER_100_837
*314 FILLER_100_849
*315 FILLER_100_85
*316 FILLER_100_861
*317 FILLER_100_867
*318 FILLER_100_869
*319 FILLER_100_881
*320 FILLER_100_893
*321 FILLER_100_905
*322 FILLER_100_917
*323 FILLER_100_923
*324 FILLER_100_925
*325 FILLER_100_937
*326 FILLER_100_949
*327 FILLER_100_961
*328 FILLER_100_97
*329 FILLER_100_973
*330 FILLER_100_979
*331 FILLER_100_981
*332 FILLER_100_993
*333 FILLER_101_1001
*334 FILLER_101_1007
*335 FILLER_101_1009
*336 FILLER_101_1021
*337 FILLER_101_1033
*338 FILLER_101_1045
*339 FILLER_101_105
*340 FILLER_101_1057
*341 FILLER_101_1063
*342 FILLER_101_1065
*343 FILLER_101_1077
*344 FILLER_101_1089
*345 FILLER_101_1101
*346 FILLER_101_111
*347 FILLER_101_1113
*348 FILLER_101_1119
*349 FILLER_101_1121
*350 FILLER_101_113
*351 FILLER_101_1133
*352 FILLER_101_1145
*353 FILLER_101_1157
*354 FILLER_101_1169
*355 FILLER_101_1175
*356 FILLER_101_1177
*357 FILLER_101_1189
*358 FILLER_101_1201
*359 FILLER_101_1213
*360 FILLER_101_1225
*361 FILLER_101_1231
*362 FILLER_101_1233
*363 FILLER_101_1245
*364 FILLER_101_125
*365 FILLER_101_1257
*366 FILLER_101_1269
*367 FILLER_101_137
*368 FILLER_101_149
*369 FILLER_101_15
*370 FILLER_101_161
*371 FILLER_101_167
*372 FILLER_101_169
*373 FILLER_101_181
*374 FILLER_101_193
*375 FILLER_101_205
*376 FILLER_101_217
*377 FILLER_101_223
*378 FILLER_101_225
*379 FILLER_101_237
*380 FILLER_101_249
*381 FILLER_101_261
*382 FILLER_101_27
*383 FILLER_101_273
*384 FILLER_101_279
*385 FILLER_101_281
*386 FILLER_101_293
*387 FILLER_101_3
*388 FILLER_101_305
*389 FILLER_101_317
*390 FILLER_101_329
*391 FILLER_101_335
*392 FILLER_101_337
*393 FILLER_101_349
*394 FILLER_101_361
*395 FILLER_101_373
*396 FILLER_101_385
*397 FILLER_101_39
*398 FILLER_101_391
*399 FILLER_101_393
*400 FILLER_101_405
*401 FILLER_101_417
*402 FILLER_101_429
*403 FILLER_101_441
*404 FILLER_101_447
*405 FILLER_101_449
*406 FILLER_101_461
*407 FILLER_101_473
*408 FILLER_101_485
*409 FILLER_101_497
*410 FILLER_101_503
*411 FILLER_101_505
*412 FILLER_101_51
*413 FILLER_101_517
*414 FILLER_101_529
*415 FILLER_101_541
*416 FILLER_101_55
*417 FILLER_101_553
*418 FILLER_101_559
*419 FILLER_101_561
*420 FILLER_101_57
*421 FILLER_101_573
*422 FILLER_101_585
*423 FILLER_101_597
*424 FILLER_101_609
*425 FILLER_101_615
*426 FILLER_101_617
*427 FILLER_101_629
*428 FILLER_101_641
*429 FILLER_101_653
*430 FILLER_101_665
*431 FILLER_101_671
*432 FILLER_101_673
*433 FILLER_101_685
*434 FILLER_101_69
*435 FILLER_101_697
*436 FILLER_101_709
*437 FILLER_101_715
*438 FILLER_101_727
*439 FILLER_101_729
*440 FILLER_101_741
*441 FILLER_101_753
*442 FILLER_101_765
*443 FILLER_101_777
*444 FILLER_101_783
*445 FILLER_101_785
*446 FILLER_101_797
*447 FILLER_101_809
*448 FILLER_101_81
*449 FILLER_101_821
*450 FILLER_101_833
*451 FILLER_101_839
*452 FILLER_101_841
*453 FILLER_101_853
*454 FILLER_101_865
*455 FILLER_101_877
*456 FILLER_101_889
*457 FILLER_101_895
*458 FILLER_101_897
*459 FILLER_101_909
*460 FILLER_101_921
*461 FILLER_101_93
*462 FILLER_101_933
*463 FILLER_101_945
*464 FILLER_101_951
*465 FILLER_101_953
*466 FILLER_101_965
*467 FILLER_101_977
*468 FILLER_101_989
*469 FILLER_102_1005
*470 FILLER_102_1017
*471 FILLER_102_1029
*472 FILLER_102_1035
*473 FILLER_102_1037
*474 FILLER_102_1049
*475 FILLER_102_1061
*476 FILLER_102_1073
*477 FILLER_102_1085
*478 FILLER_102_109
*479 FILLER_102_1091
*480 FILLER_102_1093
*481 FILLER_102_1105
*482 FILLER_102_1117
*483 FILLER_102_1129
*484 FILLER_102_1141
*485 FILLER_102_1147
*486 FILLER_102_1149
*487 FILLER_102_1161
*488 FILLER_102_1173
*489 FILLER_102_1185
*490 FILLER_102_1197
*491 FILLER_102_1203
*492 FILLER_102_1205
*493 FILLER_102_121
*494 FILLER_102_1217
*495 FILLER_102_1229
*496 FILLER_102_1241
*497 FILLER_102_1253
*498 FILLER_102_1259
*499 FILLER_102_1261
*500 FILLER_102_1273
*501 FILLER_102_133
*502 FILLER_102_139
*503 FILLER_102_141
*504 FILLER_102_15
*505 FILLER_102_153
*506 FILLER_102_165
*507 FILLER_102_177
*508 FILLER_102_189
*509 FILLER_102_195
*510 FILLER_102_197
*511 FILLER_102_209
*512 FILLER_102_221
*513 FILLER_102_233
*514 FILLER_102_245
*515 FILLER_102_251
*516 FILLER_102_253
*517 FILLER_102_265
*518 FILLER_102_27
*519 FILLER_102_277
*520 FILLER_102_289
*521 FILLER_102_29
*522 FILLER_102_3
*523 FILLER_102_301
*524 FILLER_102_307
*525 FILLER_102_309
*526 FILLER_102_321
*527 FILLER_102_333
*528 FILLER_102_345
*529 FILLER_102_357
*530 FILLER_102_363
*531 FILLER_102_365
*532 FILLER_102_377
*533 FILLER_102_389
*534 FILLER_102_401
*535 FILLER_102_41
*536 FILLER_102_413
*537 FILLER_102_419
*538 FILLER_102_421
*539 FILLER_102_433
*540 FILLER_102_445
*541 FILLER_102_457
*542 FILLER_102_469
*543 FILLER_102_475
*544 FILLER_102_477
*545 FILLER_102_489
*546 FILLER_102_501
*547 FILLER_102_513
*548 FILLER_102_525
*549 FILLER_102_53
*550 FILLER_102_531
*551 FILLER_102_533
*552 FILLER_102_545
*553 FILLER_102_557
*554 FILLER_102_569
*555 FILLER_102_581
*556 FILLER_102_587
*557 FILLER_102_589
*558 FILLER_102_601
*559 FILLER_102_613
*560 FILLER_102_625
*561 FILLER_102_637
*562 FILLER_102_643
*563 FILLER_102_645
*564 FILLER_102_65
*565 FILLER_102_657
*566 FILLER_102_669
*567 FILLER_102_681
*568 FILLER_102_693
*569 FILLER_102_699
*570 FILLER_102_701
*571 FILLER_102_713
*572 FILLER_102_737
*573 FILLER_102_749
*574 FILLER_102_755
*575 FILLER_102_757
*576 FILLER_102_769
*577 FILLER_102_77
*578 FILLER_102_781
*579 FILLER_102_793
*580 FILLER_102_805
*581 FILLER_102_811
*582 FILLER_102_813
*583 FILLER_102_825
*584 FILLER_102_83
*585 FILLER_102_837
*586 FILLER_102_849
*587 FILLER_102_85
*588 FILLER_102_861
*589 FILLER_102_867
*590 FILLER_102_869
*591 FILLER_102_881
*592 FILLER_102_893
*593 FILLER_102_905
*594 FILLER_102_917
*595 FILLER_102_923
*596 FILLER_102_925
*597 FILLER_102_937
*598 FILLER_102_949
*599 FILLER_102_961
*600 FILLER_102_97
*601 FILLER_102_973
*602 FILLER_102_979
*603 FILLER_102_981
*604 FILLER_102_993
*605 FILLER_103_1001
*606 FILLER_103_1007
*607 FILLER_103_1009
*608 FILLER_103_1021
*609 FILLER_103_1033
*610 FILLER_103_1045
*611 FILLER_103_105
*612 FILLER_103_1057
*613 FILLER_103_1063
*614 FILLER_103_1065
*615 FILLER_103_1077
*616 FILLER_103_1089
*617 FILLER_103_1101
*618 FILLER_103_111
*619 FILLER_103_1113
*620 FILLER_103_1119
*621 FILLER_103_1121
*622 FILLER_103_113
*623 FILLER_103_1133
*624 FILLER_103_1145
*625 FILLER_103_1157
*626 FILLER_103_1169
*627 FILLER_103_1175
*628 FILLER_103_1177
*629 FILLER_103_1189
*630 FILLER_103_1201
*631 FILLER_103_1213
*632 FILLER_103_1225
*633 FILLER_103_1231
*634 FILLER_103_1233
*635 FILLER_103_1245
*636 FILLER_103_125
*637 FILLER_103_1257
*638 FILLER_103_1269
*639 FILLER_103_137
*640 FILLER_103_149
*641 FILLER_103_15
*642 FILLER_103_161
*643 FILLER_103_167
*644 FILLER_103_169
*645 FILLER_103_181
*646 FILLER_103_193
*647 FILLER_103_205
*648 FILLER_103_217
*649 FILLER_103_223
*650 FILLER_103_225
*651 FILLER_103_237
*652 FILLER_103_249
*653 FILLER_103_261
*654 FILLER_103_27
*655 FILLER_103_273
*656 FILLER_103_279
*657 FILLER_103_281
*658 FILLER_103_293
*659 FILLER_103_3
*660 FILLER_103_305
*661 FILLER_103_317
*662 FILLER_103_329
*663 FILLER_103_335
*664 FILLER_103_337
*665 FILLER_103_349
*666 FILLER_103_361
*667 FILLER_103_373
*668 FILLER_103_385
*669 FILLER_103_39
*670 FILLER_103_391
*671 FILLER_103_393
*672 FILLER_103_405
*673 FILLER_103_417
*674 FILLER_103_429
*675 FILLER_103_441
*676 FILLER_103_447
*677 FILLER_103_449
*678 FILLER_103_461
*679 FILLER_103_473
*680 FILLER_103_485
*681 FILLER_103_497
*682 FILLER_103_503
*683 FILLER_103_51
*684 FILLER_103_516
*685 FILLER_103_528
*686 FILLER_103_540
*687 FILLER_103_55
*688 FILLER_103_552
*689 FILLER_103_561
*690 FILLER_103_57
*691 FILLER_103_573
*692 FILLER_103_585
*693 FILLER_103_597
*694 FILLER_103_609
*695 FILLER_103_615
*696 FILLER_103_617
*697 FILLER_103_629
*698 FILLER_103_641
*699 FILLER_103_654
*700 FILLER_103_666
*701 FILLER_103_673
*702 FILLER_103_685
*703 FILLER_103_69
*704 FILLER_103_697
*705 FILLER_103_709
*706 FILLER_103_721
*707 FILLER_103_727
*708 FILLER_103_729
*709 FILLER_103_741
*710 FILLER_103_749
*711 FILLER_103_775
*712 FILLER_103_783
*713 FILLER_103_785
*714 FILLER_103_797
*715 FILLER_103_809
*716 FILLER_103_81
*717 FILLER_103_821
*718 FILLER_103_833
*719 FILLER_103_839
*720 FILLER_103_841
*721 FILLER_103_853
*722 FILLER_103_865
*723 FILLER_103_877
*724 FILLER_103_889
*725 FILLER_103_895
*726 FILLER_103_897
*727 FILLER_103_909
*728 FILLER_103_921
*729 FILLER_103_93
*730 FILLER_103_933
*731 FILLER_103_945
*732 FILLER_103_951
*733 FILLER_103_953
*734 FILLER_103_965
*735 FILLER_103_977
*736 FILLER_103_989
*737 FILLER_104_1005
*738 FILLER_104_1017
*739 FILLER_104_1029
*740 FILLER_104_1035
*741 FILLER_104_1037
*742 FILLER_104_1049
*743 FILLER_104_1061
*744 FILLER_104_1073
*745 FILLER_104_1085
*746 FILLER_104_109
*747 FILLER_104_1091
*748 FILLER_104_1093
*749 FILLER_104_1105
*750 FILLER_104_1117
*751 FILLER_104_1129
*752 FILLER_104_1141
*753 FILLER_104_1147
*754 FILLER_104_1149
*755 FILLER_104_1161
*756 FILLER_104_1173
*757 FILLER_104_1185
*758 FILLER_104_1197
*759 FILLER_104_1203
*760 FILLER_104_1205
*761 FILLER_104_121
*762 FILLER_104_1217
*763 FILLER_104_1229
*764 FILLER_104_1241
*765 FILLER_104_1253
*766 FILLER_104_1259
*767 FILLER_104_1261
*768 FILLER_104_1273
*769 FILLER_104_133
*770 FILLER_104_139
*771 FILLER_104_141
*772 FILLER_104_15
*773 FILLER_104_153
*774 FILLER_104_165
*775 FILLER_104_177
*776 FILLER_104_189
*777 FILLER_104_195
*778 FILLER_104_197
*779 FILLER_104_209
*780 FILLER_104_221
*781 FILLER_104_233
*782 FILLER_104_245
*783 FILLER_104_251
*784 FILLER_104_253
*785 FILLER_104_265
*786 FILLER_104_27
*787 FILLER_104_277
*788 FILLER_104_289
*789 FILLER_104_29
*790 FILLER_104_3
*791 FILLER_104_301
*792 FILLER_104_307
*793 FILLER_104_309
*794 FILLER_104_321
*795 FILLER_104_333
*796 FILLER_104_345
*797 FILLER_104_357
*798 FILLER_104_363
*799 FILLER_104_365
*800 FILLER_104_377
*801 FILLER_104_389
*802 FILLER_104_401
*803 FILLER_104_41
*804 FILLER_104_413
*805 FILLER_104_419
*806 FILLER_104_421
*807 FILLER_104_433
*808 FILLER_104_445
*809 FILLER_104_457
*810 FILLER_104_469
*811 FILLER_104_475
*812 FILLER_104_477
*813 FILLER_104_489
*814 FILLER_104_501
*815 FILLER_104_513
*816 FILLER_104_525
*817 FILLER_104_53
*818 FILLER_104_531
*819 FILLER_104_533
*820 FILLER_104_545
*821 FILLER_104_557
*822 FILLER_104_569
*823 FILLER_104_581
*824 FILLER_104_587
*825 FILLER_104_589
*826 FILLER_104_601
*827 FILLER_104_613
*828 FILLER_104_625
*829 FILLER_104_637
*830 FILLER_104_643
*831 FILLER_104_645
*832 FILLER_104_65
*833 FILLER_104_657
*834 FILLER_104_669
*835 FILLER_104_681
*836 FILLER_104_693
*837 FILLER_104_699
*838 FILLER_104_701
*839 FILLER_104_713
*840 FILLER_104_725
*841 FILLER_104_737
*842 FILLER_104_749
*843 FILLER_104_755
*844 FILLER_104_757
*845 FILLER_104_769
*846 FILLER_104_77
*847 FILLER_104_781
*848 FILLER_104_793
*849 FILLER_104_805
*850 FILLER_104_811
*851 FILLER_104_813
*852 FILLER_104_825
*853 FILLER_104_83
*854 FILLER_104_837
*855 FILLER_104_849
*856 FILLER_104_85
*857 FILLER_104_861
*858 FILLER_104_867
*859 FILLER_104_869
*860 FILLER_104_881
*861 FILLER_104_893
*862 FILLER_104_905
*863 FILLER_104_917
*864 FILLER_104_923
*865 FILLER_104_925
*866 FILLER_104_937
*867 FILLER_104_949
*868 FILLER_104_961
*869 FILLER_104_97
*870 FILLER_104_973
*871 FILLER_104_979
*872 FILLER_104_981
*873 FILLER_104_993
*874 FILLER_105_1001
*875 FILLER_105_1007
*876 FILLER_105_1009
*877 FILLER_105_1021
*878 FILLER_105_1033
*879 FILLER_105_1045
*880 FILLER_105_105
*881 FILLER_105_1057
*882 FILLER_105_1063
*883 FILLER_105_1065
*884 FILLER_105_1077
*885 FILLER_105_1089
*886 FILLER_105_1101
*887 FILLER_105_111
*888 FILLER_105_1113
*889 FILLER_105_1119
*890 FILLER_105_1121
*891 FILLER_105_113
*892 FILLER_105_1133
*893 FILLER_105_1145
*894 FILLER_105_1157
*895 FILLER_105_1169
*896 FILLER_105_1175
*897 FILLER_105_1177
*898 FILLER_105_1189
*899 FILLER_105_1201
*900 FILLER_105_1213
*901 FILLER_105_1225
*902 FILLER_105_1231
*903 FILLER_105_1233
*904 FILLER_105_1245
*905 FILLER_105_125
*906 FILLER_105_1257
*907 FILLER_105_1269
*908 FILLER_105_137
*909 FILLER_105_149
*910 FILLER_105_15
*911 FILLER_105_161
*912 FILLER_105_167
*913 FILLER_105_169
*914 FILLER_105_181
*915 FILLER_105_193
*916 FILLER_105_205
*917 FILLER_105_217
*918 FILLER_105_223
*919 FILLER_105_225
*920 FILLER_105_237
*921 FILLER_105_249
*922 FILLER_105_261
*923 FILLER_105_27
*924 FILLER_105_273
*925 FILLER_105_279
*926 FILLER_105_281
*927 FILLER_105_293
*928 FILLER_105_3
*929 FILLER_105_305
*930 FILLER_105_317
*931 FILLER_105_329
*932 FILLER_105_335
*933 FILLER_105_337
*934 FILLER_105_349
*935 FILLER_105_361
*936 FILLER_105_373
*937 FILLER_105_385
*938 FILLER_105_39
*939 FILLER_105_391
*940 FILLER_105_393
*941 FILLER_105_405
*942 FILLER_105_417
*943 FILLER_105_429
*944 FILLER_105_441
*945 FILLER_105_447
*946 FILLER_105_449
*947 FILLER_105_461
*948 FILLER_105_473
*949 FILLER_105_485
*950 FILLER_105_497
*951 FILLER_105_503
*952 FILLER_105_505
*953 FILLER_105_51
*954 FILLER_105_517
*955 FILLER_105_529
*956 FILLER_105_541
*957 FILLER_105_55
*958 FILLER_105_553
*959 FILLER_105_559
*960 FILLER_105_561
*961 FILLER_105_57
*962 FILLER_105_573
*963 FILLER_105_585
*964 FILLER_105_597
*965 FILLER_105_609
*966 FILLER_105_615
*967 FILLER_105_617
*968 FILLER_105_629
*969 FILLER_105_641
*970 FILLER_105_653
*971 FILLER_105_665
*972 FILLER_105_671
*973 FILLER_105_673
*974 FILLER_105_685
*975 FILLER_105_69
*976 FILLER_105_697
*977 FILLER_105_709
*978 FILLER_105_721
*979 FILLER_105_727
*980 FILLER_105_729
*981 FILLER_105_735
*982 FILLER_105_740
*983 FILLER_105_752
*984 FILLER_105_764
*985 FILLER_105_776
*986 FILLER_105_785
*987 FILLER_105_797
*988 FILLER_105_809
*989 FILLER_105_81
*990 FILLER_105_821
*991 FILLER_105_833
*992 FILLER_105_839
*993 FILLER_105_841
*994 FILLER_105_853
*995 FILLER_105_865
*996 FILLER_105_877
*997 FILLER_105_889
*998 FILLER_105_895
*999 FILLER_105_897
*1000 FILLER_105_909
*1001 FILLER_105_921
*1002 FILLER_105_93
*1003 FILLER_105_933
*1004 FILLER_105_945
*1005 FILLER_105_951
*1006 FILLER_105_953
*1007 FILLER_105_965
*1008 FILLER_105_977
*1009 FILLER_105_989
*1010 FILLER_106_1005
*1011 FILLER_106_1017
*1012 FILLER_106_1029
*1013 FILLER_106_1035
*1014 FILLER_106_1037
*1015 FILLER_106_1049
*1016 FILLER_106_1061
*1017 FILLER_106_1073
*1018 FILLER_106_1085
*1019 FILLER_106_109
*1020 FILLER_106_1091
*1021 FILLER_106_1093
*1022 FILLER_106_1105
*1023 FILLER_106_1117
*1024 FILLER_106_1129
*1025 FILLER_106_1141
*1026 FILLER_106_1147
*1027 FILLER_106_1149
*1028 FILLER_106_1161
*1029 FILLER_106_1173
*1030 FILLER_106_1185
*1031 FILLER_106_1197
*1032 FILLER_106_1203
*1033 FILLER_106_1205
*1034 FILLER_106_121
*1035 FILLER_106_1217
*1036 FILLER_106_1229
*1037 FILLER_106_1241
*1038 FILLER_106_1253
*1039 FILLER_106_1259
*1040 FILLER_106_1261
*1041 FILLER_106_1273
*1042 FILLER_106_133
*1043 FILLER_106_139
*1044 FILLER_106_141
*1045 FILLER_106_15
*1046 FILLER_106_153
*1047 FILLER_106_165
*1048 FILLER_106_177
*1049 FILLER_106_189
*1050 FILLER_106_195
*1051 FILLER_106_197
*1052 FILLER_106_209
*1053 FILLER_106_221
*1054 FILLER_106_233
*1055 FILLER_106_245
*1056 FILLER_106_251
*1057 FILLER_106_253
*1058 FILLER_106_265
*1059 FILLER_106_27
*1060 FILLER_106_277
*1061 FILLER_106_289
*1062 FILLER_106_29
*1063 FILLER_106_3
*1064 FILLER_106_301
*1065 FILLER_106_307
*1066 FILLER_106_309
*1067 FILLER_106_321
*1068 FILLER_106_333
*1069 FILLER_106_345
*1070 FILLER_106_357
*1071 FILLER_106_363
*1072 FILLER_106_365
*1073 FILLER_106_377
*1074 FILLER_106_389
*1075 FILLER_106_401
*1076 FILLER_106_41
*1077 FILLER_106_413
*1078 FILLER_106_419
*1079 FILLER_106_421
*1080 FILLER_106_433
*1081 FILLER_106_445
*1082 FILLER_106_457
*1083 FILLER_106_469
*1084 FILLER_106_475
*1085 FILLER_106_477
*1086 FILLER_106_489
*1087 FILLER_106_501
*1088 FILLER_106_513
*1089 FILLER_106_525
*1090 FILLER_106_53
*1091 FILLER_106_531
*1092 FILLER_106_533
*1093 FILLER_106_545
*1094 FILLER_106_557
*1095 FILLER_106_569
*1096 FILLER_106_581
*1097 FILLER_106_587
*1098 FILLER_106_589
*1099 FILLER_106_601
*1100 FILLER_106_613
*1101 FILLER_106_625
*1102 FILLER_106_637
*1103 FILLER_106_643
*1104 FILLER_106_645
*1105 FILLER_106_65
*1106 FILLER_106_653
*1107 FILLER_106_662
*1108 FILLER_106_674
*1109 FILLER_106_686
*1110 FILLER_106_698
*1111 FILLER_106_701
*1112 FILLER_106_713
*1113 FILLER_106_725
*1114 FILLER_106_737
*1115 FILLER_106_749
*1116 FILLER_106_755
*1117 FILLER_106_757
*1118 FILLER_106_769
*1119 FILLER_106_77
*1120 FILLER_106_781
*1121 FILLER_106_793
*1122 FILLER_106_805
*1123 FILLER_106_811
*1124 FILLER_106_813
*1125 FILLER_106_825
*1126 FILLER_106_83
*1127 FILLER_106_837
*1128 FILLER_106_849
*1129 FILLER_106_85
*1130 FILLER_106_861
*1131 FILLER_106_867
*1132 FILLER_106_869
*1133 FILLER_106_881
*1134 FILLER_106_893
*1135 FILLER_106_905
*1136 FILLER_106_917
*1137 FILLER_106_923
*1138 FILLER_106_925
*1139 FILLER_106_937
*1140 FILLER_106_949
*1141 FILLER_106_961
*1142 FILLER_106_97
*1143 FILLER_106_973
*1144 FILLER_106_979
*1145 FILLER_106_981
*1146 FILLER_106_993
*1147 FILLER_107_1001
*1148 FILLER_107_1007
*1149 FILLER_107_1009
*1150 FILLER_107_1021
*1151 FILLER_107_1033
*1152 FILLER_107_1045
*1153 FILLER_107_105
*1154 FILLER_107_1057
*1155 FILLER_107_1063
*1156 FILLER_107_1065
*1157 FILLER_107_1077
*1158 FILLER_107_1089
*1159 FILLER_107_1101
*1160 FILLER_107_111
*1161 FILLER_107_1113
*1162 FILLER_107_1119
*1163 FILLER_107_1121
*1164 FILLER_107_113
*1165 FILLER_107_1133
*1166 FILLER_107_1145
*1167 FILLER_107_1157
*1168 FILLER_107_1169
*1169 FILLER_107_1175
*1170 FILLER_107_1177
*1171 FILLER_107_1189
*1172 FILLER_107_1201
*1173 FILLER_107_1213
*1174 FILLER_107_1225
*1175 FILLER_107_1231
*1176 FILLER_107_1233
*1177 FILLER_107_1245
*1178 FILLER_107_125
*1179 FILLER_107_1257
*1180 FILLER_107_1269
*1181 FILLER_107_137
*1182 FILLER_107_149
*1183 FILLER_107_15
*1184 FILLER_107_161
*1185 FILLER_107_167
*1186 FILLER_107_169
*1187 FILLER_107_181
*1188 FILLER_107_193
*1189 FILLER_107_205
*1190 FILLER_107_217
*1191 FILLER_107_223
*1192 FILLER_107_225
*1193 FILLER_107_237
*1194 FILLER_107_249
*1195 FILLER_107_261
*1196 FILLER_107_27
*1197 FILLER_107_273
*1198 FILLER_107_279
*1199 FILLER_107_281
*1200 FILLER_107_293
*1201 FILLER_107_3
*1202 FILLER_107_305
*1203 FILLER_107_317
*1204 FILLER_107_329
*1205 FILLER_107_335
*1206 FILLER_107_337
*1207 FILLER_107_349
*1208 FILLER_107_361
*1209 FILLER_107_373
*1210 FILLER_107_385
*1211 FILLER_107_39
*1212 FILLER_107_391
*1213 FILLER_107_393
*1214 FILLER_107_405
*1215 FILLER_107_417
*1216 FILLER_107_429
*1217 FILLER_107_441
*1218 FILLER_107_447
*1219 FILLER_107_449
*1220 FILLER_107_461
*1221 FILLER_107_473
*1222 FILLER_107_485
*1223 FILLER_107_497
*1224 FILLER_107_503
*1225 FILLER_107_505
*1226 FILLER_107_51
*1227 FILLER_107_517
*1228 FILLER_107_529
*1229 FILLER_107_541
*1230 FILLER_107_55
*1231 FILLER_107_553
*1232 FILLER_107_559
*1233 FILLER_107_561
*1234 FILLER_107_57
*1235 FILLER_107_573
*1236 FILLER_107_585
*1237 FILLER_107_597
*1238 FILLER_107_609
*1239 FILLER_107_615
*1240 FILLER_107_617
*1241 FILLER_107_629
*1242 FILLER_107_641
*1243 FILLER_107_653
*1244 FILLER_107_665
*1245 FILLER_107_671
*1246 FILLER_107_673
*1247 FILLER_107_685
*1248 FILLER_107_69
*1249 FILLER_107_697
*1250 FILLER_107_701
*1251 FILLER_107_709
*1252 FILLER_107_721
*1253 FILLER_107_727
*1254 FILLER_107_729
*1255 FILLER_107_741
*1256 FILLER_107_753
*1257 FILLER_107_765
*1258 FILLER_107_777
*1259 FILLER_107_783
*1260 FILLER_107_785
*1261 FILLER_107_797
*1262 FILLER_107_809
*1263 FILLER_107_81
*1264 FILLER_107_821
*1265 FILLER_107_833
*1266 FILLER_107_839
*1267 FILLER_107_841
*1268 FILLER_107_853
*1269 FILLER_107_865
*1270 FILLER_107_877
*1271 FILLER_107_889
*1272 FILLER_107_895
*1273 FILLER_107_897
*1274 FILLER_107_909
*1275 FILLER_107_921
*1276 FILLER_107_93
*1277 FILLER_107_933
*1278 FILLER_107_945
*1279 FILLER_107_951
*1280 FILLER_107_953
*1281 FILLER_107_965
*1282 FILLER_107_977
*1283 FILLER_107_989
*1284 FILLER_108_1005
*1285 FILLER_108_1017
*1286 FILLER_108_1029
*1287 FILLER_108_1035
*1288 FILLER_108_1037
*1289 FILLER_108_1049
*1290 FILLER_108_1061
*1291 FILLER_108_1073
*1292 FILLER_108_1085
*1293 FILLER_108_109
*1294 FILLER_108_1091
*1295 FILLER_108_1093
*1296 FILLER_108_1105
*1297 FILLER_108_1117
*1298 FILLER_108_1129
*1299 FILLER_108_1141
*1300 FILLER_108_1147
*1301 FILLER_108_1149
*1302 FILLER_108_1161
*1303 FILLER_108_1173
*1304 FILLER_108_1185
*1305 FILLER_108_1197
*1306 FILLER_108_1203
*1307 FILLER_108_1205
*1308 FILLER_108_121
*1309 FILLER_108_1217
*1310 FILLER_108_1229
*1311 FILLER_108_1241
*1312 FILLER_108_1253
*1313 FILLER_108_1259
*1314 FILLER_108_1261
*1315 FILLER_108_1273
*1316 FILLER_108_133
*1317 FILLER_108_139
*1318 FILLER_108_141
*1319 FILLER_108_15
*1320 FILLER_108_153
*1321 FILLER_108_165
*1322 FILLER_108_177
*1323 FILLER_108_189
*1324 FILLER_108_195
*1325 FILLER_108_197
*1326 FILLER_108_209
*1327 FILLER_108_221
*1328 FILLER_108_233
*1329 FILLER_108_245
*1330 FILLER_108_251
*1331 FILLER_108_253
*1332 FILLER_108_265
*1333 FILLER_108_27
*1334 FILLER_108_277
*1335 FILLER_108_289
*1336 FILLER_108_29
*1337 FILLER_108_3
*1338 FILLER_108_301
*1339 FILLER_108_307
*1340 FILLER_108_309
*1341 FILLER_108_321
*1342 FILLER_108_333
*1343 FILLER_108_345
*1344 FILLER_108_357
*1345 FILLER_108_363
*1346 FILLER_108_365
*1347 FILLER_108_377
*1348 FILLER_108_389
*1349 FILLER_108_401
*1350 FILLER_108_41
*1351 FILLER_108_413
*1352 FILLER_108_419
*1353 FILLER_108_421
*1354 FILLER_108_433
*1355 FILLER_108_445
*1356 FILLER_108_457
*1357 FILLER_108_469
*1358 FILLER_108_475
*1359 FILLER_108_477
*1360 FILLER_108_489
*1361 FILLER_108_501
*1362 FILLER_108_513
*1363 FILLER_108_525
*1364 FILLER_108_53
*1365 FILLER_108_531
*1366 FILLER_108_533
*1367 FILLER_108_545
*1368 FILLER_108_557
*1369 FILLER_108_569
*1370 FILLER_108_581
*1371 FILLER_108_587
*1372 FILLER_108_589
*1373 FILLER_108_601
*1374 FILLER_108_613
*1375 FILLER_108_625
*1376 FILLER_108_637
*1377 FILLER_108_643
*1378 FILLER_108_645
*1379 FILLER_108_65
*1380 FILLER_108_657
*1381 FILLER_108_669
*1382 FILLER_108_681
*1383 FILLER_108_693
*1384 FILLER_108_699
*1385 FILLER_108_701
*1386 FILLER_108_713
*1387 FILLER_108_725
*1388 FILLER_108_731
*1389 FILLER_108_752
*1390 FILLER_108_757
*1391 FILLER_108_769
*1392 FILLER_108_77
*1393 FILLER_108_781
*1394 FILLER_108_793
*1395 FILLER_108_805
*1396 FILLER_108_811
*1397 FILLER_108_813
*1398 FILLER_108_825
*1399 FILLER_108_83
*1400 FILLER_108_837
*1401 FILLER_108_849
*1402 FILLER_108_85
*1403 FILLER_108_861
*1404 FILLER_108_867
*1405 FILLER_108_869
*1406 FILLER_108_881
*1407 FILLER_108_893
*1408 FILLER_108_905
*1409 FILLER_108_917
*1410 FILLER_108_923
*1411 FILLER_108_925
*1412 FILLER_108_937
*1413 FILLER_108_949
*1414 FILLER_108_961
*1415 FILLER_108_97
*1416 FILLER_108_973
*1417 FILLER_108_979
*1418 FILLER_108_981
*1419 FILLER_108_993
*1420 FILLER_109_1001
*1421 FILLER_109_1007
*1422 FILLER_109_1009
*1423 FILLER_109_1021
*1424 FILLER_109_1033
*1425 FILLER_109_1045
*1426 FILLER_109_105
*1427 FILLER_109_1057
*1428 FILLER_109_1063
*1429 FILLER_109_1065
*1430 FILLER_109_1077
*1431 FILLER_109_1089
*1432 FILLER_109_1101
*1433 FILLER_109_111
*1434 FILLER_109_1113
*1435 FILLER_109_1119
*1436 FILLER_109_1121
*1437 FILLER_109_113
*1438 FILLER_109_1133
*1439 FILLER_109_1145
*1440 FILLER_109_1157
*1441 FILLER_109_1169
*1442 FILLER_109_1175
*1443 FILLER_109_1177
*1444 FILLER_109_1189
*1445 FILLER_109_1201
*1446 FILLER_109_1213
*1447 FILLER_109_1225
*1448 FILLER_109_1231
*1449 FILLER_109_1233
*1450 FILLER_109_1245
*1451 FILLER_109_125
*1452 FILLER_109_1257
*1453 FILLER_109_1269
*1454 FILLER_109_137
*1455 FILLER_109_149
*1456 FILLER_109_15
*1457 FILLER_109_161
*1458 FILLER_109_167
*1459 FILLER_109_169
*1460 FILLER_109_181
*1461 FILLER_109_193
*1462 FILLER_109_205
*1463 FILLER_109_217
*1464 FILLER_109_223
*1465 FILLER_109_225
*1466 FILLER_109_237
*1467 FILLER_109_249
*1468 FILLER_109_261
*1469 FILLER_109_27
*1470 FILLER_109_273
*1471 FILLER_109_279
*1472 FILLER_109_281
*1473 FILLER_109_293
*1474 FILLER_109_3
*1475 FILLER_109_305
*1476 FILLER_109_317
*1477 FILLER_109_329
*1478 FILLER_109_335
*1479 FILLER_109_337
*1480 FILLER_109_349
*1481 FILLER_109_361
*1482 FILLER_109_373
*1483 FILLER_109_385
*1484 FILLER_109_39
*1485 FILLER_109_391
*1486 FILLER_109_393
*1487 FILLER_109_405
*1488 FILLER_109_417
*1489 FILLER_109_429
*1490 FILLER_109_441
*1491 FILLER_109_447
*1492 FILLER_109_449
*1493 FILLER_109_461
*1494 FILLER_109_473